0PJ
  -OEChem-11112217013D

 66 66  0     1  0  0  0  0  0999 V2000
    3.4220    0.7560   -0.9210 C   0  0  0  0  0  0  0  0  0  0  0  0
    2.9060    0.0390   -1.7560 O   0  0  0  0  0  0  0  0  0  0  0  0
    4.6280    0.4390   -0.4140 O   0  0  0  0  0  0  0  0  0  0  0  0
    5.2540   -0.7730   -0.9120 C   0  0  0  0  0  0  0  0  0  0  0  0
    6.5880   -0.9640   -0.2360 C   0  0  0  0  0  0  0  0  0  0  0  0
    6.6690   -1.6810    0.9420 C   0  0  0  0  0  0  0  0  0  0  0  0
    7.8920   -1.8560    1.5620 C   0  0  0  0  0  0  0  0  0  0  0  0
    9.0340   -1.3140    1.0030 C   0  0  0  0  0  0  0  0  0  0  0  0
    8.9530   -0.5970   -0.1760 C   0  0  0  0  0  0  0  0  0  0  0  0
    7.7310   -0.4260   -0.7980 C   0  0  0  0  0  0  0  0  0  0  0  0
    2.7890    1.8710   -0.5060 N   0  0  0  0  0  0  0  0  0  0  0  0
    1.4790    2.2190   -1.0610 C   0  0  0  0  0  0  0  0  0  0  0  0
    0.1660    1.5900    0.0360 P   0  0  2  0  0  0  0  0  0  0  0  0
    0.3110    2.1980    1.3780 O   0  0  0  0  0  0  0  0  0  0  0  0
    0.2900   -0.0110    0.1570 O   0  0  0  0  0  0  0  0  0  0  0  0
   -1.3390    1.9900   -0.6020 N   0  0  0  0  0  0  0  0  0  0  0  0
   -2.4220    1.3970    0.1940 C   0  0  2  0  0  0  0  0  0  0  0  0
   -2.8530    0.0960   -0.4350 C   0  0  0  0  0  0  0  0  0  0  0  0
   -2.3100   -0.2980   -1.4450 O   0  0  0  0  0  0  0  0  0  0  0  0
   -3.6100    2.3600    0.2360 C   0  0  0  0  0  0  0  0  0  0  0  0
   -3.2010    3.6420    0.9650 C   0  0  0  0  0  0  0  0  0  0  0  0
   -4.3390    4.6610    0.8830 C   0  0  0  0  0  0  0  0  0  0  0  0
   -2.9070    3.3230    2.4320 C   0  0  0  0  0  0  0  0  0  0  0  0
   -3.8400   -0.6290    0.1270 N   0  0  0  0  0  0  0  0  0  0  0  0
   -4.2590   -1.8930   -0.4840 C   0  0  2  0  0  0  0  0  0  0  0  0
   -5.2720   -1.6180   -1.5650 C   0  0  0  0  0  0  0  0  0  0  0  0
   -5.6100   -0.4820   -1.8010 O   0  0  0  0  0  0  0  0  0  0  0  0
   -4.8840   -2.7930    0.5840 C   0  0  0  0  0  0  0  0  0  0  0  0
   -3.8280   -3.1530    1.6300 C   0  0  0  0  0  0  0  0  0  0  0  0
   -4.4840   -3.9330    2.7710 C   0  0  0  0  0  0  0  0  0  0  0  0
   -2.7420   -4.0150    0.9830 C   0  0  0  0  0  0  0  0  0  0  0  0
   -5.7990   -2.6340   -2.2650 O   0  0  0  0  0  0  0  0  0  0  0  0
    4.6130   -1.6280   -0.6970 H   0  0  0  0  0  0  0  0  0  0  0  0
    5.4010   -0.6910   -1.9890 H   0  0  0  0  0  0  0  0  0  0  0  0
    5.7770   -2.1050    1.3790 H   0  0  0  0  0  0  0  0  0  0  0  0
    7.9560   -2.4160    2.4840 H   0  0  0  0  0  0  0  0  0  0  0  0
    9.9900   -1.4490    1.4880 H   0  0  0  0  0  0  0  0  0  0  0  0
    9.8450   -0.1720   -0.6130 H   0  0  0  0  0  0  0  0  0  0  0  0
    7.6680    0.1310   -1.7210 H   0  0  0  0  0  0  0  0  0  0  0  0
    3.2010    2.4430    0.1600 H   0  0  0  0  0  0  0  0  0  0  0  0
    1.3950    3.3030   -1.1430 H   0  0  0  0  0  0  0  0  0  0  0  0
    1.3720    1.7710   -2.0490 H   0  0  0  0  0  0  0  0  0  0  0  0
    0.2040   -0.4770   -0.6860 H   0  0  0  0  0  0  0  0  0  0  0  0
   -1.4070    1.7120   -1.5690 H   0  0  0  0  0  0  0  0  0  0  0  0
   -2.0690    1.2110    1.2080 H   0  0  0  0  0  0  0  0  0  0  0  0
   -3.9170    2.6030   -0.7810 H   0  0  0  0  0  0  0  0  0  0  0  0
   -4.4400    1.8910    0.7650 H   0  0  0  0  0  0  0  0  0  0  0  0
   -2.3080    4.0570    0.4970 H   0  0  0  0  0  0  0  0  0  0  0  0
   -5.2320    4.2460    1.3510 H   0  0  0  0  0  0  0  0  0  0  0  0
   -4.0480    5.5740    1.4020 H   0  0  0  0  0  0  0  0  0  0  0  0
   -4.5490    4.8880   -0.1620 H   0  0  0  0  0  0  0  0  0  0  0  0
   -2.0950    2.5970    2.4900 H   0  0  0  0  0  0  0  0  0  0  0  0
   -2.6150    4.2360    2.9510 H   0  0  0  0  0  0  0  0  0  0  0  0
   -3.7990    2.9080    2.9000 H   0  0  0  0  0  0  0  0  0  0  0  0
   -4.2740   -0.3140    0.9350 H   0  0  0  0  0  0  0  0  0  0  0  0
   -3.3920   -2.3920   -0.9170 H   0  0  0  0  0  0  0  0  0  0  0  0
   -5.7080   -2.2660    1.0660 H   0  0  0  0  0  0  0  0  0  0  0  0
   -5.2590   -3.7040    0.1180 H   0  0  0  0  0  0  0  0  0  0  0  0
   -3.3800   -2.2400    2.0240 H   0  0  0  0  0  0  0  0  0  0  0  0
   -5.3150   -3.3540    3.1760 H   0  0  0  0  0  0  0  0  0  0  0  0
   -4.8550   -4.8850    2.3940 H   0  0  0  0  0  0  0  0  0  0  0  0
   -3.7510   -4.1140    3.5570 H   0  0  0  0  0  0  0  0  0  0  0  0
   -2.2740   -3.4590    0.1700 H   0  0  0  0  0  0  0  0  0  0  0  0
   -1.9890   -4.2710    1.7280 H   0  0  0  0  0  0  0  0  0  0  0  0
   -3.1890   -4.9270    0.5890 H   0  0  0  0  0  0  0  0  0  0  0  0
   -6.4450   -2.4080   -2.9490 H   0  0  0  0  0  0  0  0  0  0  0  0
  1  2  2  0  0  0  0
  1  3  1  0  0  0  0
  3  4  1  0  0  0  0
  4  5  1  0  0  0  0
  4 33  1  0  0  0  0
  4 34  1  0  0  0  0
  5  6  2  0  0  0  0
  5 10  1  0  0  0  0
  6  7  1  0  0  0  0
  6 35  1  0  0  0  0
  7  8  2  0  0  0  0
  7 36  1  0  0  0  0
  8  9  1  0  0  0  0
  8 37  1  0  0  0  0
  9 10  2  0  0  0  0
  9 38  1  0  0  0  0
 10 39  1  0  0  0  0
 11 12  1  0  0  0  0
 11 40  1  0  0  0  0
 12 13  1  0  0  0  0
 12 41  1  0  0  0  0
 12 42  1  0  0  0  0
 13 14  2  0  0  0  0
 13 15  1  0  0  0  0
 15 43  1  0  0  0  0
 16 17  1  0  0  0  0
 16 44  1  0  0  0  0
 17 18  1  0  0  0  0
 17 20  1  0  0  0  0
 17 45  1  0  0  0  0
 18 19  2  0  0  0  0
 20 21  1  0  0  0  0
 20 46  1  0  0  0  0
 20 47  1  0  0  0  0
 21 22  1  0  0  0  0
 21 23  1  0  0  0  0
 21 48  1  0  0  0  0
 22 49  1  0  0  0  0
 22 50  1  0  0  0  0
 22 51  1  0  0  0  0
 23 52  1  0  0  0  0
 23 53  1  0  0  0  0
 23 54  1  0  0  0  0
 24 25  1  0  0  0  0
 24 55  1  0  0  0  0
 25 26  1  0  0  0  0
 25 28  1  0  0  0  0
 25 56  1  0  0  0  0
 26 27  2  0  0  0  0
 26 32  1  0  0  0  0
 28 29  1  0  0  0  0
 28 57  1  0  0  0  0
 28 58  1  0  0  0  0
 29 30  1  0  0  0  0
 29 31  1  0  0  0  0
 29 59  1  0  0  0  0
 30 60  1  0  0  0  0
 30 61  1  0  0  0  0
 30 62  1  0  0  0  0
 31 63  1  0  0  0  0
 31 64  1  0  0  0  0
 31 65  1  0  0  0  0
 32 66  1  0  0  0  0
  1 11  1  0  0  0  0
 13 16  1  0  0  0  0
 18 24  1  0  0  0  0
M  END
> <OPENEYE_ISO_SMILES>
CC(C)C[C@@H](C(=O)N[C@@H](CC(C)C)C(=O)O)N[P@](=O)(CNC(=O)OCc1ccccc1)O

> <OPENEYE_INCHI>
InChI=1S/C21H34N3O7P/c1-14(2)10-17(19(25)23-18(20(26)27)11-15(3)4)24-32(29,30)13-22-21(28)31-12-16-8-6-5-7-9-16/h5-9,14-15,17-18H,10-13H2,1-4H3,(H,22,28)(H,23,25)(H,26,27)(H2,24,29,30)/t17-,18-/m0/s1

> <OPENEYE_INCHIKEY>
ASUDVBNLLSQCDJ-ROUUACIJSA-N

> <FORMULA>
C21H34N3O7P

$$$$
