0PK
  -OEChem-11112217013D

 70 71  0     1  0  0  0  0  0999 V2000
    3.0720   -0.1860    0.4130 C   0  0  0  0  0  0  0  0  0  0  0  0
    2.8640   -0.2290    1.6090 O   0  0  0  0  0  0  0  0  0  0  0  0
    4.1990   -0.7210   -0.0940 O   0  0  0  0  0  0  0  0  0  0  0  0
    5.1200   -1.3320    0.8480 C   0  0  0  0  0  0  0  0  0  0  0  0
    6.3140   -1.8710    0.1040 C   0  0  0  0  0  0  0  0  0  0  0  0
    7.4210   -1.0690   -0.1030 C   0  0  0  0  0  0  0  0  0  0  0  0
    8.5160   -1.5640   -0.7850 C   0  0  0  0  0  0  0  0  0  0  0  0
    8.5060   -2.8620   -1.2600 C   0  0  0  0  0  0  0  0  0  0  0  0
    7.4000   -3.6650   -1.0530 C   0  0  0  0  0  0  0  0  0  0  0  0
    6.3060   -3.1710   -0.3670 C   0  0  0  0  0  0  0  0  0  0  0  0
    2.1720    0.3910   -0.4070 N   0  0  0  0  0  0  0  0  0  0  0  0
    0.9420    0.9670    0.1430 C   0  0  2  0  0  0  0  0  0  0  0  0
   -0.4630   -0.1350   -0.2230 P   0  0  2  0  0  0  0  0  0  0  0  0
   -0.1710   -1.4930    0.2890 O   0  0  0  0  0  0  0  0  0  0  0  0
   -0.6930   -0.2000   -1.8150 O   0  0  0  0  0  0  0  0  0  0  0  0
    0.6940    2.3380   -0.4890 C   0  0  0  0  0  0  0  0  0  0  0  0
    1.7910    3.2870   -0.0790 C   0  0  0  0  0  0  0  0  0  0  0  0
    2.9660    3.3390   -0.8040 C   0  0  0  0  0  0  0  0  0  0  0  0
    1.6180    4.1090    1.0180 C   0  0  0  0  0  0  0  0  0  0  0  0
    3.9720    4.2090   -0.4280 C   0  0  0  0  0  0  0  0  0  0  0  0
    2.6240    4.9790    1.3940 C   0  0  0  0  0  0  0  0  0  0  0  0
    3.8020    5.0280    0.6720 C   0  0  0  0  0  0  0  0  0  0  0  0
   -1.8500    0.4590    0.5210 N   0  0  0  0  0  0  0  0  0  0  0  0
   -2.9790   -0.4640    0.3430 C   0  0  2  0  0  0  0  0  0  0  0  0
   -4.2520    0.3260    0.1740 C   0  0  0  0  0  0  0  0  0  0  0  0
   -4.3090    1.4740    0.5610 O   0  0  0  0  0  0  0  0  0  0  0  0
   -3.0990   -1.3680    1.5710 C   0  0  0  0  0  0  0  0  0  0  0  0
   -4.2150   -2.3890    1.3460 C   0  0  0  0  0  0  0  0  0  0  0  0
   -3.8180   -3.3380    0.2140 C   0  0  0  0  0  0  0  0  0  0  0  0
   -4.4390   -3.1920    2.6300 C   0  0  0  0  0  0  0  0  0  0  0  0
   -5.3260   -0.2430   -0.4070 N   0  0  0  0  0  0  0  0  0  0  0  0
   -6.5230    0.5570   -0.6780 C   0  0  2  0  0  0  0  0  0  0  0  0
   -7.7290   -0.3450   -0.7340 C   0  0  0  0  0  0  0  0  0  0  0  0
   -7.6020   -1.5340   -0.5640 O   0  0  0  0  0  0  0  0  0  0  0  0
   -6.3620    1.2770   -2.0190 C   0  0  0  0  0  0  0  0  0  0  0  0
   -8.9440    0.1740   -0.9710 O   0  0  0  0  0  0  0  0  0  0  0  0
    5.4490   -0.5850    1.5700 H   0  0  0  0  0  0  0  0  0  0  0  0
    4.6190   -2.1460    1.3700 H   0  0  0  0  0  0  0  0  0  0  0  0
    7.4290   -0.0540    0.2690 H   0  0  0  0  0  0  0  0  0  0  0  0
    9.3800   -0.9360   -0.9470 H   0  0  0  0  0  0  0  0  0  0  0  0
    9.3610   -3.2480   -1.7940 H   0  0  0  0  0  0  0  0  0  0  0  0
    7.3910   -4.6790   -1.4250 H   0  0  0  0  0  0  0  0  0  0  0  0
    5.4430   -3.7990   -0.2020 H   0  0  0  0  0  0  0  0  0  0  0  0
    2.3380    0.4250   -1.3620 H   0  0  0  0  0  0  0  0  0  0  0  0
    1.0450    1.0780    1.2230 H   0  0  0  0  0  0  0  0  0  0  0  0
   -0.8900    0.6570   -2.2190 H   0  0  0  0  0  0  0  0  0  0  0  0
    0.6840    2.2410   -1.5750 H   0  0  0  0  0  0  0  0  0  0  0  0
   -0.2670    2.7250   -0.1510 H   0  0  0  0  0  0  0  0  0  0  0  0
    3.0990    2.6990   -1.6640 H   0  0  0  0  0  0  0  0  0  0  0  0
    0.6980    4.0720    1.5820 H   0  0  0  0  0  0  0  0  0  0  0  0
    4.8910    4.2490   -0.9950 H   0  0  0  0  0  0  0  0  0  0  0  0
    2.4900    5.6220    2.2520 H   0  0  0  0  0  0  0  0  0  0  0  0
    4.5880    5.7070    0.9660 H   0  0  0  0  0  0  0  0  0  0  0  0
   -2.0780    1.3800    0.1790 H   0  0  0  0  0  0  0  0  0  0  0  0
   -2.8120   -1.0760   -0.5440 H   0  0  0  0  0  0  0  0  0  0  0  0
   -2.1560   -1.8900    1.7320 H   0  0  0  0  0  0  0  0  0  0  0  0
   -3.3330   -0.7610    2.4470 H   0  0  0  0  0  0  0  0  0  0  0  0
   -5.1350   -1.8700    1.0780 H   0  0  0  0  0  0  0  0  0  0  0  0
   -4.6400   -4.0240    0.0090 H   0  0  0  0  0  0  0  0  0  0  0  0
   -3.5940   -2.7600   -0.6830 H   0  0  0  0  0  0  0  0  0  0  0  0
   -2.9360   -3.9070    0.5100 H   0  0  0  0  0  0  0  0  0  0  0  0
   -4.7220   -2.5160    3.4360 H   0  0  0  0  0  0  0  0  0  0  0  0
   -5.2340   -3.9200    2.4700 H   0  0  0  0  0  0  0  0  0  0  0  0
   -3.5190   -3.7120    2.8980 H   0  0  0  0  0  0  0  0  0  0  0  0
   -5.3070   -1.1830   -0.6460 H   0  0  0  0  0  0  0  0  0  0  0  0
   -6.6550    1.2930    0.1150 H   0  0  0  0  0  0  0  0  0  0  0  0
   -5.4900    1.9290   -1.9790 H   0  0  0  0  0  0  0  0  0  0  0  0
   -6.2300    0.5420   -2.8120 H   0  0  0  0  0  0  0  0  0  0  0  0
   -7.2520    1.8730   -2.2200 H   0  0  0  0  0  0  0  0  0  0  0  0
   -9.6870   -0.4440   -0.9970 H   0  0  0  0  0  0  0  0  0  0  0  0
  1  2  2  0  0  0  0
  1  3  1  0  0  0  0
  3  4  1  0  0  0  0
  4  5  1  0  0  0  0
  4 37  1  0  0  0  0
  4 38  1  0  0  0  0
  5  6  2  0  0  0  0
  5 10  1  0  0  0  0
  6  7  1  0  0  0  0
  6 39  1  0  0  0  0
  7  8  2  0  0  0  0
  7 40  1  0  0  0  0
  8  9  1  0  0  0  0
  8 41  1  0  0  0  0
  9 10  2  0  0  0  0
  9 42  1  0  0  0  0
 10 43  1  0  0  0  0
 11 12  1  0  0  0  0
 11 44  1  0  0  0  0
 12 13  1  0  0  0  0
 12 16  1  0  0  0  0
 12 45  1  0  0  0  0
 13 14  2  0  0  0  0
 13 15  1  0  0  0  0
 15 46  1  0  0  0  0
 16 17  1  0  0  0  0
 16 47  1  0  0  0  0
 16 48  1  0  0  0  0
 17 18  2  0  0  0  0
 17 19  1  0  0  0  0
 18 20  1  0  0  0  0
 18 49  1  0  0  0  0
 19 21  2  0  0  0  0
 19 50  1  0  0  0  0
 20 22  2  0  0  0  0
 20 51  1  0  0  0  0
 21 22  1  0  0  0  0
 21 52  1  0  0  0  0
 22 53  1  0  0  0  0
 23 24  1  0  0  0  0
 23 54  1  0  0  0  0
 24 25  1  0  0  0  0
 24 27  1  0  0  0  0
 24 55  1  0  0  0  0
 25 26  2  0  0  0  0
 27 28  1  0  0  0  0
 27 56  1  0  0  0  0
 27 57  1  0  0  0  0
 28 29  1  0  0  0  0
 28 30  1  0  0  0  0
 28 58  1  0  0  0  0
 29 59  1  0  0  0  0
 29 60  1  0  0  0  0
 29 61  1  0  0  0  0
 30 62  1  0  0  0  0
 30 63  1  0  0  0  0
 30 64  1  0  0  0  0
 31 32  1  0  0  0  0
 31 65  1  0  0  0  0
 32 33  1  0  0  0  0
 32 35  1  0  0  0  0
 32 66  1  0  0  0  0
 33 34  2  0  0  0  0
 33 36  1  0  0  0  0
 35 67  1  0  0  0  0
 35 68  1  0  0  0  0
 35 69  1  0  0  0  0
 36 70  1  0  0  0  0
  1 11  1  0  0  0  0
 25 31  1  0  0  0  0
 13 23  1  0  0  0  0
M  END
> <OPENEYE_ISO_SMILES>
C[C@@H](C(=O)O)NC(=O)[C@H](CC(C)C)N[P@](=O)([C@H](Cc1ccccc1)NC(=O)OCc2ccccc2)O

> <OPENEYE_INCHI>
InChI=1S/C25H34N3O7P/c1-17(2)14-21(23(29)26-18(3)24(30)31)28-36(33,34)22(15-19-10-6-4-7-11-19)27-25(32)35-16-20-12-8-5-9-13-20/h4-13,17-18,21-22H,14-16H2,1-3H3,(H,26,29)(H,27,32)(H,30,31)(H2,28,33,34)/t18-,21-,22+/m0/s1

> <OPENEYE_INCHIKEY>
PREBTZMCCRSQJI-YUXAGFNASA-N

> <FORMULA>
C25H34N3O7P

$$$$
