0ZI
  -OEChem-11112217013D

 74 76  0     1  0  0  0  0  0999 V2000
    1.4470   -1.8930   -1.1160 C   0  0  0  0  0  0  0  0  0  0  0  0
    1.8240   -1.5470   -2.3770 C   0  0  0  0  0  0  0  0  0  0  0  0
    3.0960   -1.0380   -2.6320 C   0  0  0  0  0  0  0  0  0  0  0  0
    3.9990   -0.8740   -1.6260 C   0  0  0  0  0  0  0  0  0  0  0  0
    3.6460   -1.2200   -0.3120 C   0  0  0  0  0  0  0  0  0  0  0  0
    4.5560   -1.0640    0.7560 C   0  0  0  0  0  0  0  0  0  0  0  0
    4.1690   -1.4170    2.0310 C   0  0  0  0  0  0  0  0  0  0  0  0
    2.8960   -1.9230    2.2740 C   0  0  0  0  0  0  0  0  0  0  0  0
    1.9980   -2.0840    1.2620 C   0  0  0  0  0  0  0  0  0  0  0  0
    2.3530   -1.7360   -0.0520 C   0  0  0  0  0  0  0  0  0  0  0  0
    5.8330   -0.5580    0.5230 N   0  0  0  0  0  0  0  0  0  0  0  0
    6.0570    0.6770    1.2850 C   0  0  0  0  0  0  0  0  0  0  0  0
    6.8600   -1.5620    0.8320 C   0  0  0  0  0  0  0  0  0  0  0  0
   -0.1690   -2.5270   -0.8170 S   0  0  0  0  0  0  0  0  0  0  0  0
   -0.8480   -2.5010   -2.0650 O   0  0  0  0  0  0  0  0  0  0  0  0
   -0.0000   -3.7100   -0.0480 O   0  0  0  0  0  0  0  0  0  0  0  0
   -0.9480   -1.4410    0.1620 N   0  0  0  0  0  0  0  0  0  0  0  0
   -1.2470   -0.0940   -0.3310 C   0  0  2  0  0  0  0  0  0  0  0  0
   -1.1180    0.8940    0.7990 C   0  0  0  0  0  0  0  0  0  0  0  0
   -1.1540    0.5090    1.9490 O   0  0  0  0  0  0  0  0  0  0  0  0
   -2.6750   -0.0570   -0.8800 C   0  0  0  0  0  0  0  0  0  0  0  0
   -3.6650   -0.3150    0.2570 C   0  0  0  0  0  0  0  0  0  0  0  0
   -5.0830   -0.4040   -0.3120 C   0  0  0  0  0  0  0  0  0  0  0  0
   -6.0320   -0.6510    0.7770 N   0  0  0  0  0  0  0  0  0  0  0  0
   -7.3670   -0.7690    0.5070 C   0  0  0  0  0  0  0  0  0  0  0  0
   -7.8060   -0.6590   -0.7470 N   0  0  0  0  0  0  0  0  0  0  0  0
   -8.2300   -0.9930    1.4960 N   0  3  0  0  0  0  0  0  0  0  0  0
   -0.9620    2.2060    0.5330 N   0  0  0  0  0  0  0  0  0  0  0  0
   -0.7230    3.1670    1.6180 C   0  0  0  0  0  0  0  0  0  0  0  0
    0.5410    3.9700    1.2950 C   0  0  0  0  0  0  0  0  0  0  0  0
    0.3970    4.6080   -0.0880 C   0  0  0  0  0  0  0  0  0  0  0  0
    0.2390    3.5100   -1.1430 C   0  0  0  0  0  0  0  0  0  0  0  0
   -1.0230    2.7010   -0.8490 C   0  0  0  0  0  0  0  0  0  0  0  0
    1.6430    5.4390   -0.3990 C   0  0  0  0  0  0  0  0  0  0  0  0
    1.4470    6.1750   -1.7260 C   0  0  0  0  0  0  0  0  0  0  0  0
    1.1260   -1.6680   -3.1930 H   0  0  0  0  0  0  0  0  0  0  0  0
    3.3700   -0.7710   -3.6420 H   0  0  0  0  0  0  0  0  0  0  0  0
    4.9820   -0.4790   -1.8380 H   0  0  0  0  0  0  0  0  0  0  0  0
    4.8620   -1.2990    2.8510 H   0  0  0  0  0  0  0  0  0  0  0  0
    2.6150   -2.1940    3.2810 H   0  0  0  0  0  0  0  0  0  0  0  0
    1.0150   -2.4790    1.4700 H   0  0  0  0  0  0  0  0  0  0  0  0
    5.9510    0.4710    2.3500 H   0  0  0  0  0  0  0  0  0  0  0  0
    7.0620    1.0500    1.0850 H   0  0  0  0  0  0  0  0  0  0  0  0
    5.3250    1.4270    0.9850 H   0  0  0  0  0  0  0  0  0  0  0  0
    6.7120   -2.4400    0.2040 H   0  0  0  0  0  0  0  0  0  0  0  0
    7.8480   -1.1410    0.6420 H   0  0  0  0  0  0  0  0  0  0  0  0
    6.7840   -1.8490    1.8810 H   0  0  0  0  0  0  0  0  0  0  0  0
   -1.2070   -1.6970    1.0610 H   0  0  0  0  0  0  0  0  0  0  0  0
   -0.5460    0.1670   -1.1240 H   0  0  0  0  0  0  0  0  0  0  0  0
   -2.8710    0.9220   -1.3170 H   0  0  0  0  0  0  0  0  0  0  0  0
   -2.7900   -0.8260   -1.6440 H   0  0  0  0  0  0  0  0  0  0  0  0
   -3.4140   -1.2530    0.7530 H   0  0  0  0  0  0  0  0  0  0  0  0
   -3.6140    0.5020    0.9760 H   0  0  0  0  0  0  0  0  0  0  0  0
   -5.3350    0.5330   -0.8080 H   0  0  0  0  0  0  0  0  0  0  0  0
   -5.1350   -1.2210   -1.0310 H   0  0  0  0  0  0  0  0  0  0  0  0
   -5.7130   -0.7310    1.6890 H   0  0  0  0  0  0  0  0  0  0  0  0
   -7.1770   -0.4960   -1.4670 H   0  0  0  0  0  0  0  0  0  0  0  0
   -8.7530   -0.7430   -0.9380 H   0  0  0  0  0  0  0  0  0  0  0  0
   -9.1770   -1.0770    1.3050 H   0  0  0  0  0  0  0  0  0  0  0  0
   -7.9110   -1.0730    2.4090 H   0  0  0  0  0  0  0  0  0  0  0  0
   -1.5740    3.8430    1.7020 H   0  0  0  0  0  0  0  0  0  0  0  0
   -0.5860    2.6310    2.5570 H   0  0  0  0  0  0  0  0  0  0  0  0
    0.6770    4.7510    2.0430 H   0  0  0  0  0  0  0  0  0  0  0  0
    1.4060    3.3060    1.3010 H   0  0  0  0  0  0  0  0  0  0  0  0
   -0.4820    5.2520   -0.1010 H   0  0  0  0  0  0  0  0  0  0  0  0
    0.1590    3.9640   -2.1310 H   0  0  0  0  0  0  0  0  0  0  0  0
    1.1060    2.8500   -1.1150 H   0  0  0  0  0  0  0  0  0  0  0  0
   -1.0840    1.8580   -1.5370 H   0  0  0  0  0  0  0  0  0  0  0  0
   -1.8990    3.3390   -0.9710 H   0  0  0  0  0  0  0  0  0  0  0  0
    1.8050    6.1630    0.3980 H   0  0  0  0  0  0  0  0  0  0  0  0
    2.5090    4.7810   -0.4740 H   0  0  0  0  0  0  0  0  0  0  0  0
    1.2850    5.4510   -2.5240 H   0  0  0  0  0  0  0  0  0  0  0  0
    0.5810    6.8330   -1.6510 H   0  0  0  0  0  0  0  0  0  0  0  0
    2.3350    6.7670   -1.9470 H   0  0  0  0  0  0  0  0  0  0  0  0
  1  2  2  0  0  0  0
  1 10  1  0  0  0  0
  1 14  1  0  0  0  0
  2  3  1  0  0  0  0
  2 36  1  0  0  0  0
  3  4  2  0  0  0  0
  3 37  1  0  0  0  0
  4  5  1  0  0  0  0
  4 38  1  0  0  0  0
  5  6  2  0  0  0  0
  5 10  1  0  0  0  0
  6  7  1  0  0  0  0
  6 11  1  0  0  0  0
  7  8  2  0  0  0  0
  7 39  1  0  0  0  0
  8  9  1  0  0  0  0
  8 40  1  0  0  0  0
  9 10  2  0  0  0  0
  9 41  1  0  0  0  0
 11 12  1  0  0  0  0
 11 13  1  0  0  0  0
 12 42  1  0  0  0  0
 12 43  1  0  0  0  0
 12 44  1  0  0  0  0
 13 45  1  0  0  0  0
 13 46  1  0  0  0  0
 13 47  1  0  0  0  0
 14 15  2  0  0  0  0
 14 16  2  0  0  0  0
 17 18  1  0  0  0  0
 17 48  1  0  0  0  0
 18 19  1  0  0  0  0
 18 21  1  0  0  0  0
 18 49  1  0  0  0  0
 19 20  2  0  0  0  0
 21 22  1  0  0  0  0
 21 50  1  0  0  0  0
 21 51  1  0  0  0  0
 22 23  1  0  0  0  0
 22 52  1  0  0  0  0
 22 53  1  0  0  0  0
 23 24  1  0  0  0  0
 23 54  1  0  0  0  0
 23 55  1  0  0  0  0
 24 25  1  0  0  0  0
 24 56  1  0  0  0  0
 25 26  1  0  0  0  0
 25 27  2  0  0  0  0
 26 57  1  0  0  0  0
 26 58  1  0  0  0  0
 27 59  1  0  0  0  0
 27 60  1  0  0  0  0
 28 29  1  0  0  0  0
 28 33  1  0  0  0  0
 29 30  1  0  0  0  0
 29 61  1  0  0  0  0
 29 62  1  0  0  0  0
 30 31  1  0  0  0  0
 30 63  1  0  0  0  0
 30 64  1  0  0  0  0
 31 32  1  0  0  0  0
 31 34  1  0  0  0  0
 31 65  1  0  0  0  0
 32 33  1  0  0  0  0
 32 66  1  0  0  0  0
 32 67  1  0  0  0  0
 33 68  1  0  0  0  0
 33 69  1  0  0  0  0
 34 35  1  0  0  0  0
 34 70  1  0  0  0  0
 34 71  1  0  0  0  0
 35 72  1  0  0  0  0
 35 73  1  0  0  0  0
 35 74  1  0  0  0  0
 14 17  1  0  0  0  0
 19 28  1  0  0  0  0
M  CHG  1  27   1
M  END
> <OPENEYE_ISO_SMILES>
CCC1CCN(CC1)C(=O)[C@H](CCCNC(=[NH2+])N)NS(=O)(=O)c2cccc3c2cccc3N(C)C

> <OPENEYE_INCHI>
InChI=1S/C25H38N6O3S/c1-4-18-13-16-31(17-14-18)24(32)21(10-7-15-28-25(26)27)29-35(33,34)23-12-6-8-19-20(23)9-5-11-22(19)30(2)3/h5-6,8-9,11-12,18,21,29H,4,7,10,13-17H2,1-3H3,(H4,26,27,28)/p+1/t21-/m0/s1

> <OPENEYE_INCHIKEY>
IIYZWOIELWZHJV-NRFANRHFSA-O

> <FORMULA>
C25H39N6O3S+

$$$$
